[Format]      =  4.0
[Frequency]   =  0
[Precision]   =  1e-008
[MinAngle]    =  30
[Depth]       =  7.5
[LengthUnits] =  millimeters
[ProblemType] =  planar
[Coordinates] =  cartesian
[ACSolver]    =  0
[PrevSoln]    =  ""
[Comment]     =  "Add comments here."
[PointProps]   = 0
[BdryProps]   = 1
  <BeginBdry>
    <BdryName> = "Drichlet"
    <BdryType> = 0
    <A_0> = 0
    <A_1> = 0
    <A_2> = 0
    <Phi> = 0
    <c0> = 0
    <c0i> = 0
    <c1> = 0
    <c1i> = 0
    <Mu_ssd> = 0
    <Sigma_ssd> = 0
  <EndBdry>
[BlockProps]  = 4
  <BeginBlock>
    <BlockName> = "Air"
    <Mu_x> = 1
    <Mu_y> = 1
    <H_c> = 0
    <H_cAngle> = 0
    <J_re> = 0
    <J_im> = 0
    <Sigma> = 0
    <d_lam> = 0
    <Phi_h> = 0
    <Phi_hx> = 0
    <Phi_hy> = 0
    <LamType> = 0
    <LamFill> = 1
    <NStrands> = 0
    <WireD> = 0
    <BHPoints> = 0
  <EndBlock>
  <BeginBlock>
    <BlockName> = "Coil +"
    <Mu_x> = 1
    <Mu_y> = 1
    <H_c> = 0
    <H_cAngle> = 0
    <J_re> = 0
    <J_im> = 0
    <Sigma> = 58
    <d_lam> = 0
    <Phi_h> = 0
    <Phi_hx> = 0
    <Phi_hy> = 0
    <LamType> = 3
    <LamFill> = 1
    <NStrands> = 1
    <WireD> = 0.45000000000000001
    <BHPoints> = 0
  <EndBlock>
  <BeginBlock>
    <BlockName> = "H-18 Steel"
    <Mu_x> = 1
    <Mu_y> = 1
    <H_c> = 0
    <H_cAngle> = 0
    <J_re> = 0
    <J_im> = 0
    <Sigma> = 8.4100000000000001
    <d_lam> = 0.5
    <Phi_h> = 0
    <Phi_hx> = 0
    <Phi_hy> = 0
    <LamType> = 0
    <LamFill> = 0.96999999999999997
    <NStrands> = 0
    <WireD> = 0
    <BHPoints> = 62
      0	0
      0.02	20
      0.040000000000000001	26
      0.059999999999999998	34
      0.080000000000000002	38
      0.10000000000000001	42
      0.12	44
      0.14000000000000001	48
      0.16	50
      0.17999999999999999	54
      0.20000000000000001	56
      0.22	58
      0.23999999999999999	60
      0.26000000000000001	62
      0.28000000000000003	64
      0.29999999999999999	66
      0.32000000000000001	68
      0.34000000000000002	70
      0.35999999999999999	72.310000000000002
      0.38	74.620000000000005
      0.40000000000000002	76.920000000000002
      0.41999999999999998	79.230000000000004
      0.44	81.540000000000006
      0.46000000000000002	83.849999999999994
      0.47999999999999998	86.150000000000006
      0.5	88.459999999999994
      0.54000000000000004	90.769999999999996
      0.56000000000000005	93.079999999999998
      0.57999999999999996	95.379999999999995
      0.62	97.689999999999998
      0.66000000000000003	100
      0.76000000000000001	110
      0.85999999999999999	120
      0.92000000000000004	130
      0.98999999999999999	140
      1.04	150
      1.0800000000000001	160
      1.1200000000000001	170
      1.1499999999999999	180
      1.1899999999999999	190
      1.21	200
      1.24	210
      1.26	220
      1.27	230
      1.29	240
      1.3	250
      1.3100000000000001	260
      1.3200000000000001	270
      1.3300000000000001	280
      1.3400000000000001	290
      1.3500000000000001	300
      1.4099999999999999	400
      1.48	600
      1.54	850
      1.5800000000000001	1100
      1.6200000000000001	2500
      1.7	4000
      1.8	8500
      1.8999999999999999	15000
      2.0499999999999998	35000
      2.1000000000000001	75000
      2.1099999999999999	100000
  <EndBlock>
  <BeginBlock>
    <BlockName> = "Coil -"
    <Mu_x> = 1
    <Mu_y> = 1
    <H_c> = 0
    <H_cAngle> = 0
    <J_re> = 0
    <J_im> = 0
    <Sigma> = 58
    <d_lam> = 0
    <Phi_h> = 0
    <Phi_hx> = 0
    <Phi_hy> = 0
    <LamType> = 3
    <LamFill> = 1
    <NStrands> = 1
    <WireD> = 0.45000000000000001
    <BHPoints> = 0
  <EndBlock>
[CircuitProps]  = 2
  <BeginCircuit>
    <CircuitName> = "Coil +"
    <TotalAmps_re> = 1
    <TotalAmps_im> = 0
    <CircuitType> = 1
  <EndCircuit>
  <BeginCircuit>
    <CircuitName> = "Coil -"
    <TotalAmps_re> = 1
    <TotalAmps_im> = 0
    <CircuitType> = 1
  <EndCircuit>
[NumPoints] = 24
-10	-10	0	0
180	-10	0	0
180	75	0	0
-10	75	0	0
0	0.10000000000000007	0	0
0	9.6000000000000032	0	0
57	0.10000000000000007	0	0
57	9.6000000000000032	0	0
0	10	0	0
9.5	10	0	0
19	10	0	0
38	10	0	0
47.5	10	0	0
57	10	0	0
9.5	38	0	0
0	47.5	0	0
19	38	0	0
38	38	0	0
47.5	38	0	0
57	47.5	0	0
16.899999999999999	10	0	0
16.899999999999999	38	0	0
40.100000000000001	10	0	0
40.100000000000001	38	0	0
[NumSegments] = 26
3	2	-1	1	0	0
2	1	-1	1	0	0
1	0	-1	1	0	0
0	3	-1	1	0	0
5	4	-1	0	0	0
5	7	-1	0	0	0
7	6	-1	0	0	0
6	4	-1	0	0	0
15	19	-1	0	0	0
19	13	-1	0	0	0
12	13	-1	0	0	0
12	18	-1	0	0	0
17	11	-1	0	0	0
11	10	-1	0	0	0
10	16	-1	0	0	0
16	21	-1	0	0	0
14	9	-1	0	0	0
9	8	-1	0	0	0
8	15	-1	0	0	0
21	14	-1	0	0	0
23	17	-1	0	0	0
23	18	-1	0	0	0
22	11	-1	0	0	0
22	23	-1	0	0	0
21	20	-1	0	0	0
20	10	-1	0	0	0
[NumArcSegments] = 0
[NumHoles] = 0
[NumBlockLabels] = 5
23.399999999999999	60.600000000000001	1	-1	0	0	0	1	0
22.100000000000001	4.2999999999999998	3	-1	0	0	0	1	0
26.300000000000001	35.700000000000003	3	-1	0	0	0	1	0
18.199999999999999	22.899999999999999	2	-1	1	0	0	371	0
39.200000000000003	24.899999999999999	4	-1	2	0	0	-371	0
